Version 4
SHEET 1 880 680
WIRE 128 96 128 64
WIRE 96 112 -128 112
WIRE 208 128 160 128
WIRE -128 144 -128 112
WIRE 96 144 64 144
WIRE 64 176 64 144
WIRE 96 176 64 176
WIRE 0 192 0 160
WIRE 128 208 128 160
WIRE 96 240 96 176
WIRE 96 240 48 240
WIRE 576 288 528 288
WIRE -128 304 -128 224
WIRE 400 304 368 304
WIRE 576 304 576 288
WIRE 528 336 528 288
WIRE 0 352 0 288
WIRE 368 352 368 304
WIRE 368 480 368 432
WIRE 528 480 528 416
FLAG -128 304 0
FLAG 368 480 0
FLAG 576 304 0
FLAG 400 304 Vdd
FLAG 528 480 nVdd
FLAG 0 352 nVdd
FLAG 128 208 nVdd
FLAG 128 64 Vdd
FLAG 0 160 Vdd
FLAG 208 128 Vo
SYMBOL OpAmps\\OP292 128 64 R0
SYMATTR InstName U1
SYMBOL voltage -128 128 R0
WINDOW 123 0 0 Left 0
WINDOW 39 0 0 Left 0
SYMATTR InstName Vref
SYMATTR Value 0
SYMBOL trianglewavegenerator 0 240 R0
SYMATTR InstName X1
SYMBOL voltage 368 336 R0
SYMATTR InstName V1
SYMATTR Value 12
SYMBOL voltage 528 320 R0
SYMATTR InstName V2
SYMATTR Value 12
TEXT -160 592 Left 2 !.tran 0 1000m 900m
